<?xml version="1.0" encoding="UTF-8"?>

<!-- generated on 2024-06-20 00:11:46 by Eclipse SUMO netedit Version 1.20.0
-->

<additional xmlns:xsi="http://www.w3.org/2001/XMLSchema-instance" xsi:noNamespaceSchemaLocation="http://sumo.dlr.de/xsd/additional_file.xsd">
    <!-- Detectors -->
    <inductionLoop id="0" lane="4i_0" pos="220.00" period="30.00" file="cross.out" friendlyPos="1"/>
</additional>
